/*---------------------------------------------------------------------------*\
  =========                 |
  \\      /  F ield         | OpenFOAM: The Open Source CFD Toolbox
   \\    /   O peration     | Website:  https://openfoam.org
    \\  /    A nd           | Version:  8
     \\/     M anipulation  |
\*---------------------------------------------------------------------------*/
Build  : 8-1ac1210412fb
Exec   : chemkinToFoam chemkin/chem.inp chemkin/therm.dat chemkin/transportProperties constant/reactions constant/speciesThermo
Date   : Dec 22 2024
Time   : 15:41:33
Host   : "mcfd-VirtualBox"
PID    : 22562
I/O    : uncollated
Case   : /home/mcfd/OpenFOAM/mcfd-8/run/ref
nProcs : 1
sigFpe : Enabling floating point exception trapping (FOAM_SIGFPE).
fileModificationChecking : Monitoring run-time modified files using timeStampMaster (fileModificationSkew 10)
allowSystemOperations : Allowing user-supplied system call operations

// * * * * * * * * * * * * * * * * * * * * * * * * * * * * * * * * * * * * * //
End

